<?xml version="1.0" encoding="UTF-8"?>

<!-- generated on 2026-03-03T10:56:35.448274+01:00 by Eclipse SUMO netedit 1.25.0
<neteditConfiguration xmlns:xsi="http://www.w3.org/2001/XMLSchema-instance" xsi:noNamespaceSchemaLocation="http://sumo.dlr.de/xsd/neteditConfiguration.xsd">

    <input>
        <sumo-net-file value="C:\Users\Yunha\OneDrive\documents\Schule\10c\myscience\Simulation\Kreuzung1.net.xml"/>
    </input>

    <output>
        <output-file value="C:\Users\Yunha\OneDrive\documents\Schule\10c\myscience\Simulation\Kreuzung1.net.xml"/>
    </output>

    <processing>
        <offset.disable-normalization value="true"/>
    </processing>

    <junctions>
        <no-turnarounds value="true"/>
    </junctions>

    <netedit>
        <new-network value="false"/>
    </netedit>

</neteditConfiguration>
-->

<net version="1.20" junctionCornerDetail="5" limitTurnSpeed="5.50" xmlns:xsi="http://www.w3.org/2001/XMLSchema-instance" xsi:noNamespaceSchemaLocation="http://sumo.dlr.de/xsd/net_file.xsd">

    <location netOffset="0.00,0.00" convBoundary="-84.26,-81.04,89.05,91.39" origBoundary="10000000000.00,10000000000.00,-10000000000.00,-10000000000.00" projParameter="!"/>

    <edge id=":J0_0" function="internal">
        <lane id=":J0_0_0" index="0" speed="6.52" length="9.05" shape="-2.79,10.17 -3.15,7.71 -4.20,5.95 -5.95,4.90 -8.40,4.55"/>
    </edge>
    <edge id=":J0_1" function="internal">
        <lane id=":J0_1_0" index="0" speed="13.89" length="14.44" shape="-2.79,10.17 -2.77,-4.27"/>
    </edge>
    <edge id=":J0_2" function="internal">
        <lane id=":J0_2_0" index="0" speed="7.99" length="4.10" shape="-2.79,10.17 -2.25,6.31 -2.14,6.13"/>
    </edge>
    <edge id=":J0_12" function="internal">
        <lane id=":J0_12_0" index="0" speed="7.99" length="10.11" shape="-2.14,6.13 -0.60,3.56 2.15,1.91 6.01,1.37"/>
    </edge>
    <edge id=":J0_3" function="internal">
        <lane id=":J0_3_0" index="0" speed="6.50" length="9.03" shape="6.00,4.57 3.55,4.91 1.80,5.96 0.75,7.71 0.41,10.16"/>
    </edge>
    <edge id=":J0_4" function="internal">
        <lane id=":J0_4_0" index="0" speed="13.89" length="14.40" shape="6.00,4.57 -8.40,4.55"/>
    </edge>
    <edge id=":J0_5" function="internal">
        <lane id=":J0_5_0" index="0" speed="8.00" length="4.06" shape="6.00,4.57 2.15,4.01 2.00,3.92"/>
    </edge>
    <edge id=":J0_13" function="internal">
        <lane id=":J0_13_0" index="0" speed="8.00" length="10.15" shape="2.00,3.92 -0.60,2.35 -2.24,-0.41 -2.77,-4.27"/>
    </edge>
    <edge id=":J0_6" function="internal">
        <lane id=":J0_6_0" index="0" speed="6.50" length="9.04" shape="0.43,-4.25 0.77,-1.80 1.81,-0.04 3.56,1.01 6.01,1.37"/>
    </edge>
    <edge id=":J0_7" function="internal">
        <lane id=":J0_7_0" index="0" speed="13.89" length="14.41" shape="0.43,-4.25 0.41,10.16"/>
    </edge>
    <edge id=":J0_8" function="internal">
        <lane id=":J0_8_0" index="0" speed="8.02" length="4.04" shape="0.43,-4.25 -0.14,-0.40 -0.22,-0.27"/>
    </edge>
    <edge id=":J0_14" function="internal">
        <lane id=":J0_14_0" index="0" speed="8.02" length="10.16" shape="-0.22,-0.27 -1.80,2.35 -4.56,4.00 -8.40,4.55"/>
    </edge>
    <edge id=":J0_9" function="internal">
        <lane id=":J0_9_0" index="0" speed="6.53" length="9.06" shape="-8.40,1.35 -5.95,1.00 -4.19,-0.06 -3.13,-1.81 -2.77,-4.27"/>
    </edge>
    <edge id=":J0_10" function="internal">
        <lane id=":J0_10_0" index="0" speed="13.89" length="14.41" shape="-8.40,1.35 6.01,1.37"/>
    </edge>
    <edge id=":J0_11" function="internal">
        <lane id=":J0_11_0" index="0" speed="8.01" length="4.07" shape="-8.40,1.35 -4.56,1.90 -4.40,2.00"/>
    </edge>
    <edge id=":J0_15" function="internal">
        <lane id=":J0_15_0" index="0" speed="8.01" length="10.13" shape="-4.40,2.00 -1.81,3.55 -0.15,6.31 0.41,10.16"/>
    </edge>

    <edge id="-E0" from="J1" to="J0" priority="-1">
        <lane id="-E0_0" index="0" speed="13.89" length="75.86" shape="-84.26,1.35 -8.40,1.35"/>
    </edge>
    <edge id="-E1" from="J2" to="J0" priority="-1">
        <lane id="-E1_0" index="0" speed="13.89" length="76.78" shape="0.89,-81.03 0.43,-4.25"/>
    </edge>
    <edge id="-E2" from="J3" to="J0" priority="-1">
        <lane id="-E2_0" index="0" speed="13.89" length="83.04" shape="89.05,4.77 6.00,4.57"/>
    </edge>
    <edge id="-E3" from="J4" to="J0" priority="-1">
        <lane id="-E3_0" index="0" speed="13.89" length="81.22" shape="-2.59,91.39 -2.79,10.17"/>
    </edge>
    <edge id="E0" from="J0" to="J1" priority="-1">
        <lane id="E0_0" index="0" speed="13.89" length="75.86" shape="-8.40,4.55 -84.26,4.55"/>
    </edge>
    <edge id="E1" from="J0" to="J2" priority="-1">
        <lane id="E1_0" index="0" speed="13.89" length="76.78" shape="-2.77,-4.27 -2.31,-81.05"/>
    </edge>
    <edge id="E2" from="J0" to="J3" priority="-1">
        <lane id="E2_0" index="0" speed="13.89" length="83.04" shape="6.01,1.37 89.05,1.57"/>
    </edge>
    <edge id="E3" from="J0" to="J4" priority="-1">
        <lane id="E3_0" index="0" speed="13.89" length="81.22" shape="0.41,10.16 0.61,91.39"/>
    </edge>

    <tlLogic id="J0" type="static" programID="0" offset="0">
        <phase duration="42" state="rrrGGgrrrGGg"/>
        <phase duration="3"  state="rrryyyrrryyy"/>
        <phase duration="42" state="GGgrrrGGgrrr"/>
        <phase duration="3"  state="yyyrrryyyrrr"/>
    </tlLogic>

    <junction id="J0" type="traffic_light" x="-1.21" y="2.95" incLanes="-E3_0 -E2_0 -E1_0 -E0_0" intLanes=":J0_0_0 :J0_1_0 :J0_12_0 :J0_3_0 :J0_4_0 :J0_13_0 :J0_6_0 :J0_7_0 :J0_14_0 :J0_9_0 :J0_10_0 :J0_15_0" shape="-4.39,10.17 2.01,10.16 2.45,7.94 3.00,7.16 3.78,6.61 4.78,6.28 6.00,6.17 6.01,-0.23 3.79,-0.68 3.02,-1.24 2.46,-2.02 2.14,-3.02 2.03,-4.24 -4.37,-4.28 -4.83,-2.04 -5.39,-1.26 -6.17,-0.70 -7.18,-0.36 -8.40,-0.25 -8.40,6.15 -6.18,6.60 -5.40,7.16 -4.84,7.94 -4.51,8.94">
        <request index="0"  response="000000010000" foes="000100010000" cont="0"/>
        <request index="1"  response="111000110000" foes="111100110000" cont="0"/>
        <request index="2"  response="110011110000" foes="110111110000" cont="1"/>
        <request index="3"  response="000000000000" foes="100010000000" cont="0"/>
        <request index="4"  response="000100000100" foes="100110000111" cont="0"/>
        <request index="5"  response="011100000100" foes="111110000110" cont="1"/>
        <request index="6"  response="010000000000" foes="010000000100" cont="0"/>
        <request index="7"  response="110000111000" foes="110000111100" cont="0"/>
        <request index="8"  response="110000110111" foes="110000110111" cont="1"/>
        <request index="9"  response="000000000000" foes="000000100010" cont="0"/>
        <request index="10" response="000100000100" foes="000111100110" cont="0"/>
        <request index="11" response="000100111100" foes="000110111110" cont="1"/>
    </junction>
    <junction id="J1" type="dead_end" x="-84.26" y="2.95" incLanes="E0_0" intLanes="" shape="-84.26,2.95 -84.26,6.15 -84.26,2.95"/>
    <junction id="J2" type="dead_end" x="-0.71" y="-81.04" incLanes="E1_0" intLanes="" shape="-0.71,-81.04 -3.91,-81.06 -0.71,-81.04"/>
    <junction id="J3" type="dead_end" x="89.05" y="3.17" incLanes="E2_0" intLanes="" shape="89.05,3.17 89.06,-0.03 89.05,3.17"/>
    <junction id="J4" type="dead_end" x="-0.99" y="91.39" incLanes="E3_0" intLanes="" shape="-0.99,91.39 2.21,91.38 -0.99,91.39"/>

    <junction id=":J0_12_0" type="internal" x="-2.14" y="6.13" incLanes=":J0_2_0 -E1_0" intLanes=":J0_4_0 :J0_5_0 :J0_6_0 :J0_7_0 :J0_10_0 :J0_11_0"/>
    <junction id=":J0_13_0" type="internal" x="2.00" y="3.92" incLanes=":J0_5_0 -E0_0" intLanes=":J0_1_0 :J0_2_0 :J0_7_0 :J0_8_0 :J0_9_0 :J0_10_0"/>
    <junction id=":J0_14_0" type="internal" x="-0.22" y="-0.27" incLanes=":J0_8_0 -E3_0" intLanes=":J0_0_0 :J0_1_0 :J0_4_0 :J0_5_0 :J0_10_0 :J0_11_0"/>
    <junction id=":J0_15_0" type="internal" x="-4.40" y="2.00" incLanes=":J0_11_0 -E2_0" intLanes=":J0_1_0 :J0_2_0 :J0_3_0 :J0_4_0 :J0_7_0 :J0_8_0"/>

    <connection from="-E0" to="E1" fromLane="0" toLane="0" via=":J0_9_0" tl="J0" linkIndex="9" dir="r" state="O"/>
    <connection from="-E0" to="E2" fromLane="0" toLane="0" via=":J0_10_0" tl="J0" linkIndex="10" dir="s" state="O"/>
    <connection from="-E0" to="E3" fromLane="0" toLane="0" via=":J0_11_0" tl="J0" linkIndex="11" dir="l" state="o"/>
    <connection from="-E1" to="E2" fromLane="0" toLane="0" via=":J0_6_0" tl="J0" linkIndex="6" dir="r" state="o"/>
    <connection from="-E1" to="E3" fromLane="0" toLane="0" via=":J0_7_0" tl="J0" linkIndex="7" dir="s" state="o"/>
    <connection from="-E1" to="E0" fromLane="0" toLane="0" via=":J0_8_0" tl="J0" linkIndex="8" dir="l" state="o"/>
    <connection from="-E2" to="E3" fromLane="0" toLane="0" via=":J0_3_0" tl="J0" linkIndex="3" dir="r" state="O"/>
    <connection from="-E2" to="E0" fromLane="0" toLane="0" via=":J0_4_0" tl="J0" linkIndex="4" dir="s" state="O"/>
    <connection from="-E2" to="E1" fromLane="0" toLane="0" via=":J0_5_0" tl="J0" linkIndex="5" dir="l" state="o"/>
    <connection from="-E3" to="E0" fromLane="0" toLane="0" via=":J0_0_0" tl="J0" linkIndex="0" dir="r" state="o"/>
    <connection from="-E3" to="E1" fromLane="0" toLane="0" via=":J0_1_0" tl="J0" linkIndex="1" dir="s" state="o"/>
    <connection from="-E3" to="E2" fromLane="0" toLane="0" via=":J0_2_0" tl="J0" linkIndex="2" dir="l" state="o"/>

    <connection from=":J0_0" to="E0" fromLane="0" toLane="0" dir="r" state="M"/>
    <connection from=":J0_1" to="E1" fromLane="0" toLane="0" dir="s" state="M"/>
    <connection from=":J0_2" to="E2" fromLane="0" toLane="0" via=":J0_12_0" dir="l" state="m"/>
    <connection from=":J0_12" to="E2" fromLane="0" toLane="0" dir="l" state="M"/>
    <connection from=":J0_3" to="E3" fromLane="0" toLane="0" dir="r" state="M"/>
    <connection from=":J0_4" to="E0" fromLane="0" toLane="0" dir="s" state="M"/>
    <connection from=":J0_5" to="E1" fromLane="0" toLane="0" via=":J0_13_0" dir="l" state="m"/>
    <connection from=":J0_13" to="E1" fromLane="0" toLane="0" dir="l" state="M"/>
    <connection from=":J0_6" to="E2" fromLane="0" toLane="0" dir="r" state="M"/>
    <connection from=":J0_7" to="E3" fromLane="0" toLane="0" dir="s" state="M"/>
    <connection from=":J0_8" to="E0" fromLane="0" toLane="0" via=":J0_14_0" dir="l" state="m"/>
    <connection from=":J0_14" to="E0" fromLane="0" toLane="0" dir="l" state="M"/>
    <connection from=":J0_9" to="E1" fromLane="0" toLane="0" dir="r" state="M"/>
    <connection from=":J0_10" to="E2" fromLane="0" toLane="0" dir="s" state="M"/>
    <connection from=":J0_11" to="E3" fromLane="0" toLane="0" via=":J0_15_0" dir="l" state="m"/>
    <connection from=":J0_15" to="E3" fromLane="0" toLane="0" dir="l" state="M"/>

</net>
