<?xml version="1.0" encoding="UTF-8"?>

<!-- generated on 2025-10-13 22:05:41 by Eclipse SUMO duarouter Version 1.23.1
<duarouterConfiguration xmlns:xsi="http://www.w3.org/2001/XMLSchema-instance" xsi:noNamespaceSchemaLocation="http://sumo.dlr.de/xsd/duarouterConfiguration.xsd">

    <input>
        <net-file value="testbed_deneme.net.xml"/>
        <additional-files value="testbed_deneme.add.xml"/>
        <route-files value="input.rou.xml"/>
    </input>

    <output>
        <output-file value="randomized_12795.rou.xml"/>
    </output>

    <processing>
        <randomize-flows value="true"/>
    </processing>

    <random_number>
        <seed value="12795"/>
    </random_number>

</duarouterConfiguration>
-->

<routes xmlns:xsi="http://www.w3.org/2001/XMLSchema-instance" xsi:noNamespaceSchemaLocation="http://sumo.dlr.de/xsd/routes_file.xsd">
    <vType id="t_1" length="4.50" maxSpeed="13.90" vClass="passenger" color="blue"/>
    <vehicle id="F_E7_CAR.0" type="t_1" depart="1.25" departLane="random" departSpeed="random">
        <route edges="E7 E6"/>
    </vehicle>
    <vehicle id="F_E5_CAR.0" type="t_1" depart="1.29" departLane="random" departSpeed="random">
        <route edges="E5 E8"/>
    </vehicle>
    <vehicle id="F_E5_CAR.1" type="t_1" depart="1.68" departLane="random" departSpeed="random">
        <route edges="E5 E8"/>
    </vehicle>
    <vehicle id="F_E5_CAR.2" type="t_1" depart="17.74" departLane="random" departSpeed="random">
        <route edges="E5 E12"/>
    </vehicle>
    <vehicle id="F_E7_CAR.1" type="t_1" depart="21.25" departLane="random" departSpeed="random">
        <route edges="E7 E4"/>
    </vehicle>
    <vehicle id="F_E3_CAR.0" type="t_1" depart="21.70" departLane="random" departSpeed="random">
        <route edges="E3 E8"/>
    </vehicle>
    <vehicle id="F_E11_CAR.0" type="t_1" depart="28.47" departLane="random" departSpeed="random">
        <route edges="E11 E8"/>
    </vehicle>
    <vehicle id="F_E7_CAR.2" type="t_1" depart="34.39" departLane="random" departSpeed="random">
        <route edges="E7 E4"/>
    </vehicle>
    <vehicle id="F_E11_CAR.1" type="t_1" depart="34.97" departLane="random" departSpeed="random">
        <route edges="E11 E8"/>
    </vehicle>
    <vehicle id="F_E5_CAR.3" type="t_1" depart="39.56" departLane="random" departSpeed="random">
        <route edges="E5 E4"/>
    </vehicle>
    <vehicle id="F_E11_CAR.2" type="t_1" depart="44.86" departLane="random" departSpeed="random">
        <route edges="E11 E4"/>
    </vehicle>
    <vehicle id="F_E11_CAR.3" type="t_1" depart="45.54" departLane="random" departSpeed="random">
        <route edges="E11 E4"/>
    </vehicle>
    <vehicle id="F_E7_CAR.3" type="t_1" depart="46.10" departLane="random" departSpeed="random">
        <route edges="E7 E4"/>
    </vehicle>
    <vehicle id="F_E3_CAR.1" type="t_1" depart="50.24" departLane="random" departSpeed="random">
        <route edges="E3 E12"/>
    </vehicle>
    <vehicle id="F_E11_CAR.4" type="t_1" depart="51.45" departLane="random" departSpeed="random">
        <route edges="E11 E4"/>
    </vehicle>
    <vehicle id="F_E11_CAR.5" type="t_1" depart="53.28" departLane="random" departSpeed="random">
        <route edges="E11 E4"/>
    </vehicle>
    <vehicle id="F_E3_CAR.2" type="t_1" depart="55.39" departLane="random" departSpeed="random">
        <route edges="E3 E12"/>
    </vehicle>
    <vehicle id="F_E11_CAR.6" type="t_1" depart="55.64" departLane="random" departSpeed="random">
        <route edges="E11 E6"/>
    </vehicle>
    <vehicle id="F_E7_CAR.4" type="t_1" depart="55.74" departLane="random" departSpeed="random">
        <route edges="E7 E12"/>
    </vehicle>
    <vehicle id="F_E7_CAR.5" type="t_1" depart="55.79" departLane="random" departSpeed="random">
        <route edges="E7 E4"/>
    </vehicle>
    <vehicle id="F_E7_CAR.6" type="t_1" depart="63.44" departLane="random" departSpeed="random">
        <route edges="E7 E12"/>
    </vehicle>
    <vehicle id="F_E7_CAR.7" type="t_1" depart="64.61" departLane="random" departSpeed="random">
        <route edges="E7 E6"/>
    </vehicle>
    <vehicle id="F_E11_CAR.7" type="t_1" depart="74.01" departLane="random" departSpeed="random">
        <route edges="E11 E6"/>
    </vehicle>
    <vehicle id="F_E5_CAR.4" type="t_1" depart="75.06" departLane="random" departSpeed="random">
        <route edges="E5 E12"/>
    </vehicle>
    <vehicle id="F_E11_CAR.8" type="t_1" depart="76.41" departLane="random" departSpeed="random">
        <route edges="E11 E4"/>
    </vehicle>
    <vehicle id="F_E7_CAR.8" type="t_1" depart="78.49" departLane="random" departSpeed="random">
        <route edges="E7 E6"/>
    </vehicle>
    <vehicle id="F_E3_CAR.3" type="t_1" depart="83.96" departLane="random" departSpeed="random">
        <route edges="E3 E6"/>
    </vehicle>
    <vehicle id="F_E3_CAR.4" type="t_1" depart="86.75" departLane="random" departSpeed="random">
        <route edges="E3 E12"/>
    </vehicle>
    <vehicle id="F_E5_CAR.5" type="t_1" depart="89.89" departLane="random" departSpeed="random">
        <route edges="E5 E4"/>
    </vehicle>
    <vehicle id="F_E3_CAR.5" type="t_1" depart="91.31" departLane="random" departSpeed="random">
        <route edges="E3 E8"/>
    </vehicle>
    <vehicle id="F_E3_CAR.6" type="t_1" depart="93.04" departLane="random" departSpeed="random">
        <route edges="E3 E8"/>
    </vehicle>
    <vehicle id="F_E3_CAR.7" type="t_1" depart="99.05" departLane="random" departSpeed="random">
        <route edges="E3 E6"/>
    </vehicle>
    <vehicle id="F_E3_CAR.8" type="t_1" depart="101.17" departLane="random" departSpeed="random">
        <route edges="E3 E8"/>
    </vehicle>
    <vehicle id="F_E5_CAR.6" type="t_1" depart="109.46" departLane="random" departSpeed="random">
        <route edges="E5 E4"/>
    </vehicle>
    <vehicle id="F_E5_CAR.7" type="t_1" depart="114.33" departLane="random" departSpeed="random">
        <route edges="E5 E8"/>
    </vehicle>
    <vehicle id="F_E11_CAR.9" type="t_1" depart="119.48" departLane="random" departSpeed="random">
        <route edges="E11 E6"/>
    </vehicle>
    <vehicle id="F_E3_CAR.9" type="t_1" depart="120.61" departLane="random" departSpeed="random">
        <route edges="E3 E12"/>
    </vehicle>
    <vehicle id="F_E3_CAR.10" type="t_1" depart="121.07" departLane="random" departSpeed="random">
        <route edges="E3 E8"/>
    </vehicle>
    <vehicle id="F_E5_CAR.8" type="t_1" depart="130.46" departLane="random" departSpeed="random">
        <route edges="E5 E12"/>
    </vehicle>
    <vehicle id="F_E11_CAR.10" type="t_1" depart="132.20" departLane="random" departSpeed="random">
        <route edges="E11 E6"/>
    </vehicle>
    <vehicle id="F_E5_CAR.9" type="t_1" depart="132.82" departLane="random" departSpeed="random">
        <route edges="E5 E8"/>
    </vehicle>
    <vehicle id="F_E11_CAR.11" type="t_1" depart="136.81" departLane="random" departSpeed="random">
        <route edges="E11 E4"/>
    </vehicle>
    <vehicle id="F_E3_CAR.11" type="t_1" depart="137.18" departLane="random" departSpeed="random">
        <route edges="E3 E6"/>
    </vehicle>
    <vehicle id="F_E11_CAR.12" type="t_1" depart="140.13" departLane="random" departSpeed="random">
        <route edges="E11 E8"/>
    </vehicle>
    <vehicle id="F_E7_CAR.9" type="t_1" depart="146.63" departLane="random" departSpeed="random">
        <route edges="E7 E4"/>
    </vehicle>
    <vehicle id="F_E3_CAR.12" type="t_1" depart="147.37" departLane="random" departSpeed="random">
        <route edges="E3 E8"/>
    </vehicle>
    <vehicle id="F_E11_CAR.13" type="t_1" depart="148.96" departLane="random" departSpeed="random">
        <route edges="E11 E8"/>
    </vehicle>
    <vehicle id="F_E7_CAR.10" type="t_1" depart="152.53" departLane="random" departSpeed="random">
        <route edges="E7 E4"/>
    </vehicle>
    <vehicle id="F_E3_CAR.13" type="t_1" depart="157.81" departLane="random" departSpeed="random">
        <route edges="E3 E8"/>
    </vehicle>
    <vehicle id="F_E11_CAR.14" type="t_1" depart="171.83" departLane="random" departSpeed="random">
        <route edges="E11 E8"/>
    </vehicle>
    <vehicle id="F_E5_CAR.10" type="t_1" depart="175.72" departLane="random" departSpeed="random">
        <route edges="E5 E12"/>
    </vehicle>
    <vehicle id="F_E11_CAR.15" type="t_1" depart="180.55" departLane="random" departSpeed="random">
        <route edges="E11 E6"/>
    </vehicle>
    <vehicle id="F_E7_CAR.11" type="t_1" depart="181.02" departLane="random" departSpeed="random">
        <route edges="E7 E4"/>
    </vehicle>
    <vehicle id="F_E7_CAR.12" type="t_1" depart="190.01" departLane="random" departSpeed="random">
        <route edges="E7 E12"/>
    </vehicle>
    <vehicle id="F_E5_CAR.11" type="t_1" depart="190.52" departLane="random" departSpeed="random">
        <route edges="E5 E12"/>
    </vehicle>
    <vehicle id="F_E7_CAR.13" type="t_1" depart="191.77" departLane="random" departSpeed="random">
        <route edges="E7 E12"/>
    </vehicle>
    <vehicle id="F_E7_CAR.14" type="t_1" depart="202.61" departLane="random" departSpeed="random">
        <route edges="E7 E6"/>
    </vehicle>
    <vehicle id="F_E3_CAR.14" type="t_1" depart="204.73" departLane="random" departSpeed="random">
        <route edges="E3 E12"/>
    </vehicle>
    <vehicle id="F_E11_CAR.16" type="t_1" depart="205.38" departLane="random" departSpeed="random">
        <route edges="E11 E4"/>
    </vehicle>
    <vehicle id="F_E7_CAR.15" type="t_1" depart="205.81" departLane="random" departSpeed="random">
        <route edges="E7 E4"/>
    </vehicle>
    <vehicle id="F_E5_CAR.12" type="t_1" depart="206.21" departLane="random" departSpeed="random">
        <route edges="E5 E12"/>
    </vehicle>
    <vehicle id="F_E3_CAR.15" type="t_1" depart="212.33" departLane="random" departSpeed="random">
        <route edges="E3 E6"/>
    </vehicle>
    <vehicle id="F_E3_CAR.16" type="t_1" depart="214.52" departLane="random" departSpeed="random">
        <route edges="E3 E12"/>
    </vehicle>
    <vehicle id="F_E3_CAR.17" type="t_1" depart="215.87" departLane="random" departSpeed="random">
        <route edges="E3 E12"/>
    </vehicle>
    <vehicle id="F_E11_CAR.17" type="t_1" depart="220.80" departLane="random" departSpeed="random">
        <route edges="E11 E8"/>
    </vehicle>
    <vehicle id="F_E5_CAR.13" type="t_1" depart="222.43" departLane="random" departSpeed="random">
        <route edges="E5 E12"/>
    </vehicle>
    <vehicle id="F_E11_CAR.18" type="t_1" depart="226.57" departLane="random" departSpeed="random">
        <route edges="E11 E6"/>
    </vehicle>
    <vehicle id="F_E5_CAR.14" type="t_1" depart="226.69" departLane="random" departSpeed="random">
        <route edges="E5 E8"/>
    </vehicle>
    <vehicle id="F_E5_CAR.15" type="t_1" depart="226.89" departLane="random" departSpeed="random">
        <route edges="E5 E8"/>
    </vehicle>
    <vehicle id="F_E5_CAR.16" type="t_1" depart="230.46" departLane="random" departSpeed="random">
        <route edges="E5 E12"/>
    </vehicle>
    <vehicle id="F_E5_CAR.17" type="t_1" depart="238.50" departLane="random" departSpeed="random">
        <route edges="E5 E12"/>
    </vehicle>
    <vehicle id="F_E11_CAR.19" type="t_1" depart="239.26" departLane="random" departSpeed="random">
        <route edges="E11 E8"/>
    </vehicle>
    <vehicle id="F_E3_CAR.18" type="t_1" depart="241.41" departLane="random" departSpeed="random">
        <route edges="E3 E8"/>
    </vehicle>
    <vehicle id="F_E3_CAR.19" type="t_1" depart="243.38" departLane="random" departSpeed="random">
        <route edges="E3 E8"/>
    </vehicle>
    <vehicle id="F_E3_CAR.20" type="t_1" depart="247.61" departLane="random" departSpeed="random">
        <route edges="E3 E12"/>
    </vehicle>
    <vehicle id="F_E5_CAR.18" type="t_1" depart="258.70" departLane="random" departSpeed="random">
        <route edges="E5 E12"/>
    </vehicle>
    <vehicle id="F_E5_CAR.19" type="t_1" depart="263.33" departLane="random" departSpeed="random">
        <route edges="E5 E8"/>
    </vehicle>
    <vehicle id="F_E11_CAR.20" type="t_1" depart="268.53" departLane="random" departSpeed="random">
        <route edges="E11 E6"/>
    </vehicle>
    <vehicle id="F_E3_CAR.21" type="t_1" depart="270.45" departLane="random" departSpeed="random">
        <route edges="E3 E6"/>
    </vehicle>
    <vehicle id="F_E11_CAR.21" type="t_1" depart="278.02" departLane="random" departSpeed="random">
        <route edges="E11 E6"/>
    </vehicle>
    <vehicle id="F_E5_CAR.20" type="t_1" depart="281.38" departLane="random" departSpeed="random">
        <route edges="E5 E8"/>
    </vehicle>
    <vehicle id="F_E5_CAR.21" type="t_1" depart="282.32" departLane="random" departSpeed="random">
        <route edges="E5 E8"/>
    </vehicle>
    <vehicle id="F_E3_CAR.22" type="t_1" depart="292.43" departLane="random" departSpeed="random">
        <route edges="E3 E12"/>
    </vehicle>
    <vehicle id="F_E3_CAR.23" type="t_1" depart="292.71" departLane="random" departSpeed="random">
        <route edges="E3 E12"/>
    </vehicle>
    <vehicle id="F_E11_CAR.22" type="t_1" depart="294.82" departLane="random" departSpeed="random">
        <route edges="E11 E6"/>
    </vehicle>
    <vehicle id="F_E11_CAR.23" type="t_1" depart="299.52" departLane="random" departSpeed="random">
        <route edges="E11 E6"/>
    </vehicle>
    <vehicle id="F_E3_CAR.24" type="t_1" depart="301.07" departLane="random" departSpeed="random">
        <route edges="E3 E6"/>
    </vehicle>
    <vehicle id="F_E3_CAR.25" type="t_1" depart="303.30" departLane="random" departSpeed="random">
        <route edges="E3 E12"/>
    </vehicle>
    <vehicle id="F_E7_CAR.16" type="t_1" depart="305.70" departLane="random" departSpeed="random">
        <route edges="E7 E12"/>
    </vehicle>
    <vehicle id="F_E3_CAR.26" type="t_1" depart="309.63" departLane="random" departSpeed="random">
        <route edges="E3 E6"/>
    </vehicle>
    <vehicle id="F_E11_CAR.24" type="t_1" depart="310.25" departLane="random" departSpeed="random">
        <route edges="E11 E4"/>
    </vehicle>
    <vehicle id="F_E7_CAR.17" type="t_1" depart="312.50" departLane="random" departSpeed="random">
        <route edges="E7 E12"/>
    </vehicle>
    <vehicle id="F_E3_CAR.27" type="t_1" depart="314.29" departLane="random" departSpeed="random">
        <route edges="E3 E8"/>
    </vehicle>
    <vehicle id="F_E5_CAR.22" type="t_1" depart="315.35" departLane="random" departSpeed="random">
        <route edges="E5 E4"/>
    </vehicle>
    <vehicle id="F_E3_CAR.28" type="t_1" depart="316.61" departLane="random" departSpeed="random">
        <route edges="E3 E6"/>
    </vehicle>
    <vehicle id="F_E5_CAR.23" type="t_1" depart="320.00" departLane="random" departSpeed="random">
        <route edges="E5 E8"/>
    </vehicle>
    <vehicle id="F_E11_CAR.25" type="t_1" depart="321.47" departLane="random" departSpeed="random">
        <route edges="E11 E4"/>
    </vehicle>
    <vehicle id="F_E7_CAR.18" type="t_1" depart="322.32" departLane="random" departSpeed="random">
        <route edges="E7 E6"/>
    </vehicle>
    <vehicle id="F_E5_CAR.24" type="t_1" depart="324.48" departLane="random" departSpeed="random">
        <route edges="E5 E4"/>
    </vehicle>
    <vehicle id="F_E7_CAR.19" type="t_1" depart="324.89" departLane="random" departSpeed="random">
        <route edges="E7 E12"/>
    </vehicle>
    <vehicle id="F_E7_CAR.20" type="t_1" depart="336.85" departLane="random" departSpeed="random">
        <route edges="E7 E6"/>
    </vehicle>
    <vehicle id="F_E7_CAR.21" type="t_1" depart="336.89" departLane="random" departSpeed="random">
        <route edges="E7 E6"/>
    </vehicle>
    <vehicle id="F_E3_CAR.29" type="t_1" depart="338.46" departLane="random" departSpeed="random">
        <route edges="E3 E12"/>
    </vehicle>
    <vehicle id="F_E11_CAR.26" type="t_1" depart="341.10" departLane="random" departSpeed="random">
        <route edges="E11 E4"/>
    </vehicle>
    <vehicle id="F_E3_CAR.30" type="t_1" depart="344.45" departLane="random" departSpeed="random">
        <route edges="E3 E8"/>
    </vehicle>
    <vehicle id="F_E7_CAR.22" type="t_1" depart="344.80" departLane="random" departSpeed="random">
        <route edges="E7 E6"/>
    </vehicle>
    <vehicle id="F_E11_CAR.27" type="t_1" depart="356.92" departLane="random" departSpeed="random">
        <route edges="E11 E4"/>
    </vehicle>
    <vehicle id="F_E7_CAR.23" type="t_1" depart="358.12" departLane="random" departSpeed="random">
        <route edges="E7 E4"/>
    </vehicle>
    <vehicle id="F_E11_CAR.28" type="t_1" depart="359.77" departLane="random" departSpeed="random">
        <route edges="E11 E4"/>
    </vehicle>
    <vehicle id="F_E5_CAR.25" type="t_1" depart="361.55" departLane="random" departSpeed="random">
        <route edges="E5 E4"/>
    </vehicle>
    <vehicle id="F_E11_CAR.29" type="t_1" depart="363.88" departLane="random" departSpeed="random">
        <route edges="E11 E6"/>
    </vehicle>
    <vehicle id="F_E7_CAR.24" type="t_1" depart="364.80" departLane="random" departSpeed="random">
        <route edges="E7 E12"/>
    </vehicle>
    <vehicle id="F_E7_CAR.25" type="t_1" depart="370.16" departLane="random" departSpeed="random">
        <route edges="E7 E6"/>
    </vehicle>
    <vehicle id="F_E3_CAR.31" type="t_1" depart="370.24" departLane="random" departSpeed="random">
        <route edges="E3 E6"/>
    </vehicle>
    <vehicle id="F_E7_CAR.26" type="t_1" depart="371.76" departLane="random" departSpeed="random">
        <route edges="E7 E12"/>
    </vehicle>
    <vehicle id="F_E11_CAR.30" type="t_1" depart="377.81" departLane="random" departSpeed="random">
        <route edges="E11 E4"/>
    </vehicle>
    <vehicle id="F_E5_CAR.26" type="t_1" depart="380.95" departLane="random" departSpeed="random">
        <route edges="E5 E8"/>
    </vehicle>
    <vehicle id="F_E5_CAR.27" type="t_1" depart="381.81" departLane="random" departSpeed="random">
        <route edges="E5 E8"/>
    </vehicle>
    <vehicle id="F_E3_CAR.32" type="t_1" depart="382.26" departLane="random" departSpeed="random">
        <route edges="E3 E12"/>
    </vehicle>
    <vehicle id="F_E3_CAR.33" type="t_1" depart="385.22" departLane="random" departSpeed="random">
        <route edges="E3 E8"/>
    </vehicle>
    <vehicle id="F_E5_CAR.28" type="t_1" depart="385.62" departLane="random" departSpeed="random">
        <route edges="E5 E12"/>
    </vehicle>
    <vehicle id="F_E5_CAR.29" type="t_1" depart="385.75" departLane="random" departSpeed="random">
        <route edges="E5 E12"/>
    </vehicle>
    <vehicle id="F_E5_CAR.30" type="t_1" depart="386.76" departLane="random" departSpeed="random">
        <route edges="E5 E4"/>
    </vehicle>
    <vehicle id="F_E7_CAR.27" type="t_1" depart="390.43" departLane="random" departSpeed="random">
        <route edges="E7 E12"/>
    </vehicle>
    <vehicle id="F_E11_CAR.31" type="t_1" depart="390.53" departLane="random" departSpeed="random">
        <route edges="E11 E4"/>
    </vehicle>
    <vehicle id="F_E3_CAR.34" type="t_1" depart="392.01" departLane="random" departSpeed="random">
        <route edges="E3 E8"/>
    </vehicle>
    <vehicle id="F_E5_CAR.31" type="t_1" depart="392.70" departLane="random" departSpeed="random">
        <route edges="E5 E12"/>
    </vehicle>
    <vehicle id="F_E7_CAR.28" type="t_1" depart="400.22" departLane="random" departSpeed="random">
        <route edges="E7 E6"/>
    </vehicle>
    <vehicle id="F_E7_CAR.29" type="t_1" depart="403.15" departLane="random" departSpeed="random">
        <route edges="E7 E6"/>
    </vehicle>
    <vehicle id="F_E11_CAR.32" type="t_1" depart="404.17" departLane="random" departSpeed="random">
        <route edges="E11 E8"/>
    </vehicle>
    <vehicle id="F_E11_CAR.33" type="t_1" depart="404.33" departLane="random" departSpeed="random">
        <route edges="E11 E4"/>
    </vehicle>
    <vehicle id="F_E3_CAR.35" type="t_1" depart="404.97" departLane="random" departSpeed="random">
        <route edges="E3 E8"/>
    </vehicle>
    <vehicle id="F_E5_CAR.32" type="t_1" depart="406.71" departLane="random" departSpeed="random">
        <route edges="E5 E12"/>
    </vehicle>
    <vehicle id="F_E7_CAR.30" type="t_1" depart="408.23" departLane="random" departSpeed="random">
        <route edges="E7 E6"/>
    </vehicle>
    <vehicle id="F_E3_CAR.36" type="t_1" depart="408.38" departLane="random" departSpeed="random">
        <route edges="E3 E12"/>
    </vehicle>
    <vehicle id="F_E11_CAR.34" type="t_1" depart="410.77" departLane="random" departSpeed="random">
        <route edges="E11 E8"/>
    </vehicle>
    <vehicle id="F_E7_CAR.31" type="t_1" depart="411.52" departLane="random" departSpeed="random">
        <route edges="E7 E12"/>
    </vehicle>
    <vehicle id="F_E7_CAR.32" type="t_1" depart="421.91" departLane="random" departSpeed="random">
        <route edges="E7 E12"/>
    </vehicle>
    <vehicle id="F_E7_CAR.33" type="t_1" depart="423.18" departLane="random" departSpeed="random">
        <route edges="E7 E6"/>
    </vehicle>
    <vehicle id="F_E3_CAR.37" type="t_1" depart="424.16" departLane="random" departSpeed="random">
        <route edges="E3 E6"/>
    </vehicle>
    <vehicle id="F_E5_CAR.33" type="t_1" depart="425.72" departLane="random" departSpeed="random">
        <route edges="E5 E8"/>
    </vehicle>
    <vehicle id="F_E7_CAR.34" type="t_1" depart="428.46" departLane="random" departSpeed="random">
        <route edges="E7 E12"/>
    </vehicle>
    <vehicle id="F_E7_CAR.35" type="t_1" depart="432.76" departLane="random" departSpeed="random">
        <route edges="E7 E12"/>
    </vehicle>
    <vehicle id="F_E7_CAR.36" type="t_1" depart="433.14" departLane="random" departSpeed="random">
        <route edges="E7 E12"/>
    </vehicle>
    <vehicle id="F_E5_CAR.34" type="t_1" depart="440.80" departLane="random" departSpeed="random">
        <route edges="E5 E8"/>
    </vehicle>
    <vehicle id="F_E11_CAR.35" type="t_1" depart="441.14" departLane="random" departSpeed="random">
        <route edges="E11 E6"/>
    </vehicle>
    <vehicle id="F_E11_CAR.36" type="t_1" depart="443.06" departLane="random" departSpeed="random">
        <route edges="E11 E6"/>
    </vehicle>
    <vehicle id="F_E3_CAR.38" type="t_1" depart="443.32" departLane="random" departSpeed="random">
        <route edges="E3 E6"/>
    </vehicle>
    <vehicle id="F_E11_CAR.37" type="t_1" depart="444.87" departLane="random" departSpeed="random">
        <route edges="E11 E8"/>
    </vehicle>
    <vehicle id="F_E3_CAR.39" type="t_1" depart="448.52" departLane="random" departSpeed="random">
        <route edges="E3 E8"/>
    </vehicle>
    <vehicle id="F_E5_CAR.35" type="t_1" depart="452.30" departLane="random" departSpeed="random">
        <route edges="E5 E8"/>
    </vehicle>
    <vehicle id="F_E5_CAR.36" type="t_1" depart="453.42" departLane="random" departSpeed="random">
        <route edges="E5 E4"/>
    </vehicle>
    <vehicle id="F_E7_CAR.37" type="t_1" depart="460.35" departLane="random" departSpeed="random">
        <route edges="E7 E12"/>
    </vehicle>
    <vehicle id="F_E5_CAR.37" type="t_1" depart="460.76" departLane="random" departSpeed="random">
        <route edges="E5 E12"/>
    </vehicle>
    <vehicle id="F_E11_CAR.38" type="t_1" depart="462.48" departLane="random" departSpeed="random">
        <route edges="E11 E6"/>
    </vehicle>
    <vehicle id="F_E11_CAR.39" type="t_1" depart="466.61" departLane="random" departSpeed="random">
        <route edges="E11 E4"/>
    </vehicle>
    <vehicle id="F_E7_CAR.38" type="t_1" depart="474.13" departLane="random" departSpeed="random">
        <route edges="E7 E4"/>
    </vehicle>
    <vehicle id="F_E3_CAR.40" type="t_1" depart="476.83" departLane="random" departSpeed="random">
        <route edges="E3 E12"/>
    </vehicle>
    <vehicle id="F_E5_CAR.38" type="t_1" depart="478.22" departLane="random" departSpeed="random">
        <route edges="E5 E12"/>
    </vehicle>
    <vehicle id="F_E3_CAR.41" type="t_1" depart="481.82" departLane="random" departSpeed="random">
        <route edges="E3 E6"/>
    </vehicle>
    <vehicle id="F_E11_CAR.40" type="t_1" depart="483.39" departLane="random" departSpeed="random">
        <route edges="E11 E6"/>
    </vehicle>
    <vehicle id="F_E3_CAR.42" type="t_1" depart="489.11" departLane="random" departSpeed="random">
        <route edges="E3 E12"/>
    </vehicle>
    <vehicle id="F_E5_CAR.39" type="t_1" depart="490.46" departLane="random" departSpeed="random">
        <route edges="E5 E4"/>
    </vehicle>
    <vehicle id="F_E3_CAR.43" type="t_1" depart="493.45" departLane="random" departSpeed="random">
        <route edges="E3 E12"/>
    </vehicle>
    <vehicle id="F_E3_CAR.44" type="t_1" depart="496.57" departLane="random" departSpeed="random">
        <route edges="E3 E12"/>
    </vehicle>
    <vehicle id="F_E7_CAR.39" type="t_1" depart="499.78" departLane="random" departSpeed="random">
        <route edges="E7 E4"/>
    </vehicle>
    <vehicle id="F_E11_CAR.41" type="t_1" depart="501.04" departLane="random" departSpeed="random">
        <route edges="E11 E4"/>
    </vehicle>
    <vehicle id="F_E3_CAR.45" type="t_1" depart="503.77" departLane="random" departSpeed="random">
        <route edges="E3 E8"/>
    </vehicle>
    <vehicle id="F_E5_CAR.40" type="t_1" depart="511.85" departLane="random" departSpeed="random">
        <route edges="E5 E12"/>
    </vehicle>
    <vehicle id="F_E3_CAR.46" type="t_1" depart="511.88" departLane="random" departSpeed="random">
        <route edges="E3 E12"/>
    </vehicle>
    <vehicle id="F_E3_CAR.47" type="t_1" depart="516.39" departLane="random" departSpeed="random">
        <route edges="E3 E6"/>
    </vehicle>
    <vehicle id="F_E11_CAR.42" type="t_1" depart="520.08" departLane="random" departSpeed="random">
        <route edges="E11 E4"/>
    </vehicle>
    <vehicle id="F_E7_CAR.40" type="t_1" depart="521.91" departLane="random" departSpeed="random">
        <route edges="E7 E12"/>
    </vehicle>
    <vehicle id="F_E5_CAR.41" type="t_1" depart="525.59" departLane="random" departSpeed="random">
        <route edges="E5 E8"/>
    </vehicle>
    <vehicle id="F_E11_CAR.43" type="t_1" depart="525.93" departLane="random" departSpeed="random">
        <route edges="E11 E6"/>
    </vehicle>
    <vehicle id="F_E7_CAR.41" type="t_1" depart="529.26" departLane="random" departSpeed="random">
        <route edges="E7 E4"/>
    </vehicle>
    <vehicle id="F_E7_CAR.42" type="t_1" depart="534.83" departLane="random" departSpeed="random">
        <route edges="E7 E6"/>
    </vehicle>
    <vehicle id="F_E3_CAR.48" type="t_1" depart="535.47" departLane="random" departSpeed="random">
        <route edges="E3 E6"/>
    </vehicle>
    <vehicle id="F_E7_CAR.43" type="t_1" depart="538.03" departLane="random" departSpeed="random">
        <route edges="E7 E12"/>
    </vehicle>
    <vehicle id="F_E7_CAR.44" type="t_1" depart="539.05" departLane="random" departSpeed="random">
        <route edges="E7 E6"/>
    </vehicle>
    <vehicle id="F_E7_CAR.45" type="t_1" depart="541.67" departLane="random" departSpeed="random">
        <route edges="E7 E12"/>
    </vehicle>
    <vehicle id="F_E3_CAR.49" type="t_1" depart="542.21" departLane="random" departSpeed="random">
        <route edges="E3 E6"/>
    </vehicle>
    <vehicle id="F_E11_CAR.44" type="t_1" depart="550.22" departLane="random" departSpeed="random">
        <route edges="E11 E6"/>
    </vehicle>
    <vehicle id="F_E11_CAR.45" type="t_1" depart="558.25" departLane="random" departSpeed="random">
        <route edges="E11 E8"/>
    </vehicle>
    <vehicle id="F_E3_CAR.50" type="t_1" depart="560.32" departLane="random" departSpeed="random">
        <route edges="E3 E6"/>
    </vehicle>
    <vehicle id="F_E5_CAR.42" type="t_1" depart="564.13" departLane="random" departSpeed="random">
        <route edges="E5 E8"/>
    </vehicle>
    <vehicle id="F_E3_CAR.51" type="t_1" depart="567.46" departLane="random" departSpeed="random">
        <route edges="E3 E6"/>
    </vehicle>
    <vehicle id="F_E5_CAR.43" type="t_1" depart="574.80" departLane="random" departSpeed="random">
        <route edges="E5 E12"/>
    </vehicle>
    <vehicle id="F_E3_CAR.52" type="t_1" depart="582.18" departLane="random" departSpeed="random">
        <route edges="E3 E12"/>
    </vehicle>
    <vehicle id="F_E3_CAR.53" type="t_1" depart="582.49" departLane="random" departSpeed="random">
        <route edges="E3 E6"/>
    </vehicle>
    <vehicle id="F_E11_CAR.46" type="t_1" depart="583.27" departLane="random" departSpeed="random">
        <route edges="E11 E6"/>
    </vehicle>
    <vehicle id="F_E5_CAR.44" type="t_1" depart="586.31" departLane="random" departSpeed="random">
        <route edges="E5 E8"/>
    </vehicle>
    <vehicle id="F_E3_CAR.54" type="t_1" depart="590.27" departLane="random" departSpeed="random">
        <route edges="E3 E8"/>
    </vehicle>
    <vehicle id="F_E7_CAR.46" type="t_1" depart="603.75" departLane="random" departSpeed="random">
        <route edges="E7 E12"/>
    </vehicle>
    <vehicle id="F_E7_CAR.47" type="t_1" depart="606.25" departLane="random" departSpeed="random">
        <route edges="E7 E4"/>
    </vehicle>