<routes>
<person id="ped_10_8_0" depart="11">
<walk from="E1" to="E4" />
</person>
<person id="ped_10_2_0" depart="16">
<walk from="E11" to="E12" />
</person>
<person id="ped_10_6_0" depart="20">
<walk from="E7" to="E10" />
</person>
<person id="ped_10_0_0" depart="60">
<walk from="E11" to="E7" />
</person>
<person id="ped_10_3_0" depart="130">
<walk from="E5" to="E6" />
</person>
<person id="ped_10_0_1" depart="133">
<walk from="E11" to="E7" />
</person>
<person id="ped_10_0_2" depart="140">
<walk from="E11" to="E7" />
</person>
<person id="ped_10_8_1" depart="144">
<walk from="E1" to="E4" />
</person>
<person id="ped_10_3_1" depart="151">
<walk from="E5" to="E6" />
</person>
<person id="ped_10_6_1" depart="178">
<walk from="E7" to="E10" />
</person>
<person id="ped_10_2_1" depart="181">
<walk from="E11" to="E12" />
</person>
<person id="ped_10_1_0" depart="182">
<walk from="E11" to="E6" />
</person>
<person id="ped_10_9_0" depart="207">
<walk from="E1" to="E11" />
</person>
<person id="ped_10_7_0" depart="257">
<walk from="E1" to="E10" />
</person>
<person id="ped_10_9_1" depart="265">
<walk from="E1" to="E11" />
</person>
<person id="ped_10_3_2" depart="266">
<walk from="E5" to="E6" />
</person>
<person id="ped_10_4_0" depart="295">
<walk from="E5" to="E12" />
</person>
<person id="ped_10_0_3" depart="311">
<walk from="E11" to="E7" />
</person>
<person id="ped_10_6_2" depart="327">
<walk from="E7" to="E10" />
</person>
<person id="ped_10_4_1" depart="331">
<walk from="E5" to="E12" />
</person>
<person id="ped_10_9_2" depart="379">
<walk from="E1" to="E11" />
</person>
<person id="ped_10_4_2" depart="395">
<walk from="E5" to="E12" />
</person>
<person id="ped_10_8_2" depart="404">
<walk from="E1" to="E4" />
</person>
<person id="ped_10_9_3" depart="445">
<walk from="E1" to="E11" />
</person>
<person id="ped_10_4_3" depart="462">
<walk from="E5" to="E12" />
</person>
<person id="ped_10_5_0" depart="489">
<walk from="E7" to="E4" />
</person>
<person id="ped_10_2_2" depart="544">
<walk from="E11" to="E12" />
</person>
<person id="ped_10_2_3" depart="548">
<walk from="E11" to="E12" />
</person>
<person id="ped_10_8_3" depart="556">
<walk from="E1" to="E4" />
</person>
<person id="ped_10_1_1" depart="568">
<walk from="E11" to="E6" />
</person>
<person id="ped_10_9_4" depart="570">
<walk from="E1" to="E11" />
</person>
<person id="ped_10_5_1" depart="587">
<walk from="E7" to="E4" />
</person>
<person id="ped_10_4_4" depart="613">
<walk from="E5" to="E12" />
</person>
<person id="ped_10_4_5" depart="613">
<walk from="E5" to="E12" />
</person>
<person id="ped_10_9_5" depart="622">
<walk from="E1" to="E11" />
</person>
<person id="ped_10_3_3" depart="640">
<walk from="E5" to="E6" />
</person>
<person id="ped_10_7_1" depart="648">
<walk from="E1" to="E10" />
</person>
<person id="ped_10_0_4" depart="656">
<walk from="E11" to="E7" />
</person>
<person id="ped_10_5_2" depart="675">
<walk from="E7" to="E4" />
</person>
<person id="ped_10_8_4" depart="679">
<walk from="E1" to="E4" />
</person>
<person id="ped_10_4_6" depart="681">
<walk from="E5" to="E12" />
</person>
<person id="ped_10_7_2" depart="681">
<walk from="E1" to="E10" />
</person>
<person id="ped_10_6_3" depart="713">
<walk from="E7" to="E10" />
</person>
<person id="ped_10_1_2" depart="715">
<walk from="E11" to="E6" />
</person>
<person id="ped_10_6_4" depart="721">
<walk from="E7" to="E10" />
</person>
<person id="ped_10_5_3" depart="730">
<walk from="E7" to="E4" />
</person>
<person id="ped_10_5_4" depart="782">
<walk from="E7" to="E4" />
</person>
<person id="ped_10_2_4" depart="798">
<walk from="E11" to="E12" />
</person>
<person id="ped_10_0_5" depart="844">
<walk from="E11" to="E7" />
</person>
<person id="ped_10_6_5" depart="916">
<walk from="E7" to="E10" />
</person>
<person id="ped_10_3_4" depart="918">
<walk from="E5" to="E6" />
</person>
<person id="ped_10_2_5" depart="965">
<walk from="E11" to="E12" />
</person>
<person id="ped_10_3_5" depart="976">
<walk from="E5" to="E6" />
</person>
<person id="ped_10_2_6" depart="980">
<walk from="E11" to="E12" />
</person>
<person id="ped_10_2_7" depart="983">
<walk from="E11" to="E12" />
</person>
<person id="ped_10_7_3" depart="988">
<walk from="E1" to="E10" />
</person>
<person id="ped_10_6_6" depart="993">
<walk from="E7" to="E10" />
</person>
<person id="ped_10_5_5" depart="1005">
<walk from="E7" to="E4" />
</person>
<person id="ped_10_1_3" depart="1023">
<walk from="E11" to="E6" />
</person>
<person id="ped_10_6_7" depart="1072">
<walk from="E7" to="E10" />
</person>
<person id="ped_10_1_4" depart="1074">
<walk from="E11" to="E6" />
</person>
<person id="ped_10_5_6" depart="1093">
<walk from="E7" to="E4" />
</person>
<person id="ped_10_7_4" depart="1112">
<walk from="E1" to="E10" />
</person>
<person id="ped_10_5_7" depart="1125">
<walk from="E7" to="E4" />
</person>
<person id="ped_10_0_6" depart="1136">
<walk from="E11" to="E7" />
</person>
<person id="ped_10_1_5" depart="1161">
<walk from="E11" to="E6" />
</person>
<person id="ped_10_4_7" depart="1233">
<walk from="E5" to="E12" />
</person>
<person id="ped_10_5_8" depart="1239">
<walk from="E7" to="E4" />
</person>
<person id="ped_10_2_8" depart="1240">
<walk from="E11" to="E12" />
</person>
<person id="ped_10_1_6" depart="1241">
<walk from="E11" to="E6" />
</person>
<person id="ped_10_3_6" depart="1287">
<walk from="E5" to="E6" />
</person>
<person id="ped_10_6_8" depart="1308">
<walk from="E7" to="E10" />
</person>
<person id="ped_10_3_7" depart="1329">
<walk from="E5" to="E6" />
</person>
<person id="ped_10_0_7" depart="1342">
<walk from="E11" to="E7" />
</person>
<person id="ped_10_6_9" depart="1343">
<walk from="E7" to="E10" />
</person>
<person id="ped_10_6_10" depart="1358">
<walk from="E7" to="E10" />
</person>
<person id="ped_10_6_11" depart="1423">
<walk from="E7" to="E10" />
</person>
<person id="ped_10_5_9" depart="1428">
<walk from="E7" to="E4" />
</person>
<person id="ped_10_8_5" depart="1430">
<walk from="E1" to="E4" />
</person>
<person id="ped_10_9_6" depart="1432">
<walk from="E1" to="E11" />
</person>
<person id="ped_10_1_7" depart="1454">
<walk from="E11" to="E6" />
</person>
<person id="ped_10_1_8" depart="1479">
<walk from="E11" to="E6" />
</person>
<person id="ped_10_2_9" depart="1485">
<walk from="E11" to="E12" />
</person>
<person id="ped_10_2_10" depart="1499">
<walk from="E11" to="E12" />
</person>
<person id="ped_10_4_8" depart="1532">
<walk from="E5" to="E12" />
</person>
<person id="ped_10_2_11" depart="1536">
<walk from="E11" to="E12" />
</person>
<person id="ped_10_1_9" depart="1563">
<walk from="E11" to="E6" />
</person>
<person id="ped_10_4_9" depart="1574">
<walk from="E5" to="E12" />
</person>
<person id="ped_10_8_6" depart="1588">
<walk from="E1" to="E4" />
</person>
<person id="ped_10_7_5" depart="1599">
<walk from="E1" to="E10" />
</person>
<person id="ped_10_8_7" depart="1643">
<walk from="E1" to="E4" />
</person>
<person id="ped_10_7_6" depart="1658">
<walk from="E1" to="E10" />
</person>
<person id="ped_10_3_8" depart="1691">
<walk from="E5" to="E6" />
</person>
<person id="ped_10_5_10" depart="1696">
<walk from="E7" to="E4" />
</person>
<person id="ped_10_8_8" depart="1700">
<walk from="E1" to="E4" />
</person>
<person id="ped_10_1_10" depart="1721">
<walk from="E11" to="E6" />
</person>
<person id="ped_10_8_9" depart="1722">
<walk from="E1" to="E4" />
</person>
<person id="ped_10_1_11" depart="1725">
<walk from="E11" to="E6" />
</person>
<person id="ped_10_0_8" depart="1756">
<walk from="E11" to="E7" />
</person>
<person id="ped_10_5_11" depart="1774">
<walk from="E7" to="E4" />
</person>
<person id="ped_10_6_12" depart="1780">
<walk from="E7" to="E10" />
</person>
<person id="ped_10_3_9" depart="1785">
<walk from="E5" to="E6" />
</person>
<person id="ped_10_9_7" depart="1787">
<walk from="E1" to="E11" />
</person>
<person id="ped_10_9_8" depart="1796">
<walk from="E1" to="E11" />
</person>
<person id="ped_10_2_12" depart="1800">
<walk from="E11" to="E12" />
</person>
<person id="ped_10_8_10" depart="1807">
<walk from="E1" to="E4" />
</person>
<person id="ped_10_4_10" depart="1808">
<walk from="E5" to="E12" />
</person>
<person id="ped_10_5_12" depart="1825">
<walk from="E7" to="E4" />
</person>
<person id="ped_10_9_9" depart="1831">
<walk from="E1" to="E11" />
</person>
<person id="ped_10_7_7" depart="1835">
<walk from="E1" to="E10" />
</person>
<person id="ped_10_3_10" depart="1845">
<walk from="E5" to="E6" />
</person>
<person id="ped_10_9_10" depart="1859">
<walk from="E1" to="E11" />
</person>
<person id="ped_10_5_13" depart="1866">
<walk from="E7" to="E4" />
</person>
<person id="ped_10_1_12" depart="1871">
<walk from="E11" to="E6" />
</person>
<person id="ped_10_2_13" depart="1871">
<walk from="E11" to="E12" />
</person>
<person id="ped_10_9_11" depart="1878">
<walk from="E1" to="E11" />
</person>
<person id="ped_10_8_11" depart="1890">
<walk from="E1" to="E4" />
</person>
<person id="ped_10_0_9" depart="1894">
<walk from="E11" to="E7" />
</person>
<person id="ped_10_3_11" depart="1925">
<walk from="E5" to="E6" />
</person>
<person id="ped_10_6_13" depart="1966">
<walk from="E7" to="E10" />
</person>
<person id="ped_10_0_10" depart="1976">
<walk from="E11" to="E7" />
</person>
<person id="ped_10_7_8" depart="1976">
<walk from="E1" to="E10" />
</person>
<person id="ped_10_9_12" depart="1986">
<walk from="E1" to="E11" />
</person>
<person id="ped_10_7_9" depart="2004">
<walk from="E1" to="E10" />
</person>
<person id="ped_10_8_12" depart="2006">
<walk from="E1" to="E4" />
</person>
<person id="ped_10_0_11" depart="2007">
<walk from="E11" to="E7" />
</person>
<person id="ped_10_0_12" depart="2012">
<walk from="E11" to="E7" />
</person>
<person id="ped_10_7_10" depart="2030">
<walk from="E1" to="E10" />
</person>
<person id="ped_10_3_12" depart="2034">
<walk from="E5" to="E6" />
</person>
<person id="ped_10_7_11" depart="2047">
<walk from="E1" to="E10" />
</person>
<person id="ped_10_9_13" depart="2052">
<walk from="E1" to="E11" />
</person>
<person id="ped_10_3_13" depart="2055">
<walk from="E5" to="E6" />
</person>
<person id="ped_10_7_12" depart="2130">
<walk from="E1" to="E10" />
</person>
<person id="ped_10_0_13" depart="2132">
<walk from="E11" to="E7" />
</person>
<person id="ped_10_5_14" depart="2137">
<walk from="E7" to="E4" />
</person>
<person id="ped_10_7_13" depart="2151">
<walk from="E1" to="E10" />
</person>
<person id="ped_10_4_11" depart="2185">
<walk from="E5" to="E12" />
</person>
<person id="ped_10_9_14" depart="2193">
<walk from="E1" to="E11" />
</person>
<person id="ped_10_2_14" depart="2196">
<walk from="E11" to="E12" />
</person>
<person id="ped_10_8_13" depart="2206">
<walk from="E1" to="E4" />
</person>
<person id="ped_10_8_14" depart="2217">
<walk from="E1" to="E4" />
</person>
<person id="ped_10_6_14" depart="2231">
<walk from="E7" to="E10" />
</person>
<person id="ped_10_3_14" depart="2248">
<walk from="E5" to="E6" />
</person>
<person id="ped_10_8_15" depart="2288">
<walk from="E1" to="E4" />
</person>
<person id="ped_10_4_12" depart="2323">
<walk from="E5" to="E12" />
</person>
<person id="ped_10_0_14" depart="2340">
<walk from="E11" to="E7" />
</person>
<person id="ped_10_0_15" depart="2367">
<walk from="E11" to="E7" />
</person>
<person id="ped_10_2_15" depart="2387">
<walk from="E11" to="E12" />
</person>
<person id="ped_10_7_14" depart="2387">
<walk from="E1" to="E10" />
</person>
<person id="ped_10_3_15" depart="2394">
<walk from="E5" to="E6" />
</person>
<person id="ped_10_8_16" depart="2395">
<walk from="E1" to="E4" />
</person>
<person id="ped_10_4_13" depart="2462">
<walk from="E5" to="E12" />
</person>
<person id="ped_10_7_15" depart="2466">
<walk from="E1" to="E10" />
</person>
<person id="ped_10_1_13" depart="2470">
<walk from="E11" to="E6" />
</person>
<person id="ped_10_4_14" depart="2484">
<walk from="E5" to="E12" />
</person>
<person id="ped_10_9_15" depart="2491">
<walk from="E1" to="E11" />
</person>
<person id="ped_10_2_16" depart="2512">
<walk from="E11" to="E12" />
</person>
<person id="ped_10_5_15" depart="2528">
<walk from="E7" to="E4" />
</person>
<person id="ped_10_6_15" depart="2657">
<walk from="E7" to="E10" />
</person>
<person id="ped_10_3_16" depart="2674">
<walk from="E5" to="E6" />
</person>
<person id="ped_10_0_16" depart="2676">
<walk from="E11" to="E7" />
</person>
<person id="ped_10_4_15" depart="2694">
<walk from="E5" to="E12" />
</person>
<person id="ped_10_5_16" depart="2705">
<walk from="E7" to="E4" />
</person>
<person id="ped_10_1_14" depart="2710">
<walk from="E11" to="E6" />
</person>
<person id="ped_10_3_17" depart="2730">
<walk from="E5" to="E6" />
</person>
<person id="ped_10_7_16" depart="2758">
<walk from="E1" to="E10" />
</person>
<person id="ped_10_7_17" depart="2761">
<walk from="E1" to="E10" />
</person>
<person id="ped_10_1_15" depart="2764">
<walk from="E11" to="E6" />
</person>
<person id="ped_10_5_17" depart="2788">
<walk from="E7" to="E4" />
</person>
<person id="ped_10_1_16" depart="2809">
<walk from="E11" to="E6" />
</person>
<person id="ped_10_8_17" depart="2874">
<walk from="E1" to="E4" />
</person>
<person id="ped_10_6_16" depart="2918">
<walk from="E7" to="E10" />
</person>
<person id="ped_10_7_18" depart="3015">
<walk from="E1" to="E10" />
</person>
<person id="ped_10_1_17" depart="3053">
<walk from="E11" to="E6" />
</person>
<person id="ped_10_2_17" depart="3145">
<walk from="E11" to="E12" />
</person>
<person id="ped_10_2_18" depart="3162">
<walk from="E11" to="E12" />
</person>
<person id="ped_10_6_17" depart="3165">
<walk from="E7" to="E10" />
</person>
<person id="ped_10_4_16" depart="3166">
<walk from="E5" to="E12" />
</person>
<person id="ped_10_9_16" depart="3172">
<walk from="E1" to="E11" />
</person>
<person id="ped_10_4_17" depart="3176">
<walk from="E5" to="E12" />
</person>
<person id="ped_10_6_18" depart="3184">
<walk from="E7" to="E10" />
</person>
<person id="ped_10_9_17" depart="3274">
<walk from="E1" to="E11" />
</person>
<person id="ped_10_5_18" depart="3307">
<walk from="E7" to="E4" />
</person>
<person id="ped_10_0_17" depart="3320">
<walk from="E11" to="E7" />
</person>
<person id="ped_10_0_18" depart="3331">
<walk from="E11" to="E7" />
</person>
<person id="ped_10_4_18" depart="3350">
<walk from="E5" to="E12" />
</person>
<person id="ped_10_6_19" depart="3363">
<walk from="E7" to="E10" />
</person>
<person id="ped_10_0_19" depart="3373">
<walk from="E11" to="E7" />
</person>
<person id="ped_10_1_18" depart="3386">
<walk from="E11" to="E6" />
</person>
<person id="ped_10_8_18" depart="3395">
<walk from="E1" to="E4" />
</person>
<person id="ped_10_9_18" depart="3413">
<walk from="E1" to="E11" />
</person>
<person id="ped_10_3_18" depart="3449">
<walk from="E5" to="E6" />
</person>
<person id="ped_10_3_19" depart="3457">
<walk from="E5" to="E6" />
</person>
<person id="ped_10_4_19" depart="3502">
<walk from="E5" to="E12" />
</person>
<person id="ped_10_2_19" depart="3522">
<walk from="E11" to="E12" />
</person>
<person id="ped_10_1_19" depart="3523">
<walk from="E11" to="E6" />
</person>
<person id="ped_10_9_19" depart="3530">
<walk from="E1" to="E11" />
</person>
<person id="ped_10_5_19" depart="3542">
<walk from="E7" to="E4" />
</person>
<person id="ped_10_7_19" depart="3561">
<walk from="E1" to="E10" />
</person>
<person id="ped_10_8_19" depart="3571">
<walk from="E1" to="E4" />
</person>
</routes>