<?xml version="1.0" encoding="UTF-8"?>

<!-- generated on 2026-03-03T10:57:12.449123+01:00 by Eclipse SUMO netedit 1.25.0
-->

<additional xmlns:xsi="http://www.w3.org/2001/XMLSchema-instance" xsi:noNamespaceSchemaLocation="http://sumo.dlr.de/xsd/additional_file.xsd">
    <!-- Detectors -->
    <laneAreaDetector id="e2_0" lane="-E0_0" pos="14.13" length="60.00" period="300.00" file="e2_0.xml"/>
    <laneAreaDetector id="e2_1" lane="-E3_0" pos="19.64" length="60.00" friendlyPos="1" period="300.00" file="e2_1.xml"/>
    <laneAreaDetector id="e2_2" lane="-E2_0" pos="21.11" length="60.00" period="300.00" file="e2_2.xml"/>
    <laneAreaDetector id="e2_3" lane="-E1_0" pos="14.97" length="60.00" friendlyPos="1" period="300.00" file="e2_3.xml"/>
</additional>
